REMARK    Small molecule (ligand)
REMARK    Compound: Z1252751589_1_T1
REMARK    SMILES: CN1CCN(CC1=O)S(C)(=O)=O
REMARK    The ligand was originally not a salt, therefore no desalting was carried out.
REMARK    The tautomeric state was generated by cxcalc version 18.20.0 of ChemAxons JChem Suite.
REMARK    Protonation state was generated at pH 7.4 by cxcalc version 18.20.0 of ChemAxons JChem Suite.
REMARK    Generation of the 3D conformation was carried out by molconvert version 18.20.0 of ChemAxons JChem Suite.
REMARK    Generation of the the target format file (pdbqt) was carried out by Open Babel version 2.4.1.
REMARK    Created on Sun Nov  4 17:39:43 EST 2018
REMARK  3 active torsions:
REMARK  status: ('A' for Active; 'I' for Inactive)
REMARK    1  A    between atoms: _1  and  _2
REMARK    2  A    between atoms: _5  and  _9
REMARK    3  A    between atoms: _9  and  _10
REMARK                            x       y       z     vdW  Elec       q    Type
REMARK                         _______ _______ _______ _____ _____    ______ ____
ROOT
ATOM      1  C   LIG     1       3.455  -1.700   3.846  0.00  0.00    +0.132 C 
ATOM      2  N   LIG     1       2.426  -1.145   2.996  0.00  0.00    -0.302 N 
ATOM      3  C   LIG     1       2.732  -0.189   2.048  0.00  0.00    +0.231 C 
ATOM      4  O   LIG     1       3.902   0.243   1.904  0.00  0.00    -0.274 OA
ATOM      5  C   LIG     1       1.722   0.374   1.120  0.00  0.00    +0.204 C 
ATOM      6  N   LIG     1       0.325  -0.088   1.357  0.00  0.00    -0.171 NA
ATOM      7  C   LIG     1       0.217  -1.477   1.863  0.00  0.00    +0.128 C 
ATOM      8  C   LIG     1       1.067  -1.618   3.148  0.00  0.00    +0.124 C 
ENDROOT
BRANCH   6   9
ATOM      9  S   LIG     1      -0.749   0.228  -0.017  0.00  0.00    +0.029 S 
ATOM     10  O   LIG     1      -0.616   1.765  -0.455  0.00  0.00    -0.158 OA
ATOM     11  O   LIG     1      -2.265  -0.044   0.429  0.00  0.00    -0.158 OA
ATOM     12  C   LIG     1      -0.348  -0.844  -1.445  0.00  0.00    +0.215 C 
ENDBRANCH   6   9
TORSDOF 1
