REMARK    Small molecule (ligand)
REMARK    Compound: Z1509950178_1_T1
REMARK    SMILES: O=C(C#C)N1CCS(=O)(=O)CC1
REMARK    The ligand was originally not a salt, therefore no desalting was carried out.
REMARK    The tautomeric state was generated by cxcalc version 18.20.0 of ChemAxons JChem Suite.
REMARK    Protonation state was generated at pH 7.4 by cxcalc version 18.20.0 of ChemAxons JChem Suite.
REMARK    Generation of the 3D conformation was carried out by molconvert version 18.20.0 of ChemAxons JChem Suite.
REMARK    Generation of the the target format file (pdbqt) was carried out by Open Babel version 2.4.1.
REMARK    Created on Sun Nov  4 17:39:23 EST 2018
REMARK  1 active torsions:
REMARK  status: ('A' for Active; 'I' for Inactive)
REMARK    1  A    between atoms: _2  and  _3
REMARK                            x       y       z     vdW  Elec       q    Type
REMARK                         _______ _______ _______ _____ _____    ______ ____
ROOT
ATOM      1  O   LIG     1      -1.033  -2.641  -0.555  0.00  0.00    -0.260 OA
ATOM      2  C   LIG     1       0.096  -2.095  -0.549  0.00  0.00    +0.291 C 
ATOM      3  N   LIG     1       0.283  -0.780  -0.975  0.00  0.00    -0.288 N 
ATOM      4  C   LIG     1      -0.855   0.033  -1.405  0.00  0.00    +0.131 C 
ATOM      5  C   LIG     1      -0.779   0.461  -2.892  0.00  0.00    +0.185 C 
ATOM      6  S   LIG     1       0.819   1.292  -3.204  0.00  0.00    -0.028 S 
ATOM      7  O   LIG     1       1.104   1.406  -4.778  0.00  0.00    -0.174 OA
ATOM      8  O   LIG     1       0.810   2.746  -2.530  0.00  0.00    -0.174 OA
ATOM      9  C   LIG     1       2.085   0.257  -2.385  0.00  0.00    +0.185 C 
ATOM     10  C   LIG     1       1.595  -0.132  -0.968  0.00  0.00    +0.131 C 
ENDROOT
BRANCH   2  11
ATOM     11  C   LIG     1       1.029  -2.881  -0.088  0.00  0.00    -0.011 C 
ATOM     12  C   LIG     1       1.865  -3.610   0.356  0.00  0.00    +0.014 C 
ENDBRANCH   2  11
TORSDOF 1
