REMARK    Small molecule (ligand)
REMARK    Compound: Z1614339982_1_T1
REMARK    SMILES: CN1CN(CC1=O)S(C)(=O)=O
REMARK    The ligand was originally not a salt, therefore no desalting was carried out.
REMARK    The tautomeric state was generated by cxcalc version 18.20.0 of ChemAxons JChem Suite.
REMARK    Protonation state was generated at pH 7.4 by cxcalc version 18.20.0 of ChemAxons JChem Suite.
REMARK    Generation of the 3D conformation was carried out by molconvert version 18.20.0 of ChemAxons JChem Suite.
REMARK    Generation of the the target format file (pdbqt) was carried out by Open Babel version 2.4.1.
REMARK    Created on Sun Nov  4 17:39:44 EST 2018
REMARK  3 active torsions:
REMARK  status: ('A' for Active; 'I' for Inactive)
REMARK    1  A    between atoms: _1  and  _2
REMARK    2  A    between atoms: _4  and  _8
REMARK    3  A    between atoms: _8  and  _9
REMARK                            x       y       z     vdW  Elec       q    Type
REMARK                         _______ _______ _______ _____ _____    ______ ____
ROOT
ATOM      1  C   LIG     1       1.118  -3.728   1.334  0.00  0.00    +0.133 C 
ATOM      2  N   LIG     1      -0.038  -2.886   1.426  0.00  0.00    -0.289 N 
ATOM      3  C   LIG     1      -1.309  -3.226   1.136  0.00  0.00    +0.232 C 
ATOM      4  O   LIG     1      -1.702  -4.364   0.789  0.00  0.00    -0.274 OA
ATOM      5  C   LIG     1      -2.208  -2.086   1.284  0.00  0.00    +0.206 C 
ATOM      6  N   LIG     1      -1.280  -0.937   1.409  0.00  0.00    -0.155 NA
ATOM      7  C   LIG     1       0.010  -1.529   1.848  0.00  0.00    +0.218 C 
ENDROOT
BRANCH   6   8
ATOM      8  S   LIG     1      -1.131   0.021  -0.080  0.00  0.00    +0.031 S 
ATOM      9  O   LIG     1      -0.209   1.290   0.248  0.00  0.00    -0.158 OA
ATOM     10  O   LIG     1      -2.583   0.547  -0.512  0.00  0.00    -0.158 OA
ATOM     11  C   LIG     1      -0.385  -0.925  -1.459  0.00  0.00    +0.215 C 
ENDBRANCH   6   8
TORSDOF 1
