REMARK    Small molecule (ligand)
REMARK    Compound: Z1692816331_1_T1
REMARK    SMILES: CN1CC[C@@H](N2CN(C)C(=O)C2)C1=O
REMARK    The ligand was originally not a salt, therefore no desalting was carried out.
REMARK    The tautomeric state was generated by cxcalc version 18.20.0 of ChemAxons JChem Suite.
REMARK    Protonation state was generated at pH 7.4 by cxcalc version 18.20.0 of ChemAxons JChem Suite.
REMARK    Generation of the 3D conformation was carried out by molconvert version 18.20.0 of ChemAxons JChem Suite.
REMARK    Generation of the the target format file (pdbqt) was carried out by Open Babel version 2.4.1.
REMARK    Created on Sun Nov  4 17:39:41 EST 2018
REMARK  3 active torsions:
REMARK  status: ('A' for Active; 'I' for Inactive)
REMARK    1  A    between atoms: _1  and  _2
REMARK    2  A    between atoms: _5  and  _6
REMARK    3  A    between atoms: _8  and  _9
REMARK                            x       y       z     vdW  Elec       q    Type
REMARK                         _______ _______ _______ _____ _____    ______ ____
ROOT
ATOM      1  C   LIG     1      -4.841   3.908   1.729  0.00  0.00    +0.132 C 
ATOM      2  N   LIG     1      -4.403   2.748   1.002  0.00  0.00    -0.303 N 
ATOM      3  C   LIG     1      -3.369   1.944   1.335  0.00  0.00    +0.233 C 
ATOM      4  O   LIG     1      -2.675   2.114   2.365  0.00  0.00    -0.274 OA
ATOM      5  C   LIG     1      -3.153   0.815   0.408  0.00  0.00    +0.146 C 
ATOM      6  C   LIG     1      -4.301   1.031  -0.616  0.00  0.00    +0.047 C 
ATOM      7  C   LIG     1      -5.044   2.315  -0.188  0.00  0.00    +0.109 C 
ENDROOT
BRANCH   5   8
ATOM      8  N   LIG     1      -1.790   0.778  -0.223  0.00  0.00    -0.267 NA
ATOM      9  C   LIG     1      -1.543  -0.322  -1.193  0.00  0.00    +0.182 C 
ATOM     10  C   LIG     1      -0.143  -0.675  -0.982  0.00  0.00    +0.230 C 
ATOM     11  O   LIG     1       0.469  -1.492  -1.708  0.00  0.00    -0.274 OA
ATOM     12  N   LIG     1       0.377  -0.031   0.078  0.00  0.00    -0.290 N 
ATOM     13  C   LIG     1       1.716  -0.153   0.581  0.00  0.00    +0.133 C 
ATOM     14  C   LIG     1      -0.611   0.787   0.687  0.00  0.00    +0.196 C 
ENDBRANCH   5   8
TORSDOF 1
