REMARK    Small molecule (ligand)
REMARK    Compound: Z2027307024_1_T3
REMARK    SMILES: CN1C(=O)CN(CC1=O)C(C)=O
REMARK    The ligand was originally not a salt, therefore no desalting was carried out.
REMARK    The tautomeric state was generated by cxcalc version 18.20.0 of ChemAxons JChem Suite.
REMARK    Protonation state was generated at pH 7.4 by cxcalc version 18.20.0 of ChemAxons JChem Suite.
REMARK    Generation of the 3D conformation was carried out by molconvert version 18.20.0 of ChemAxons JChem Suite.
REMARK    Generation of the the target format file (pdbqt) was carried out by Open Babel version 2.4.1.
REMARK    Created on Sun Nov  4 17:39:39 EST 2018
REMARK  2 active torsions:
REMARK  status: ('A' for Active; 'I' for Inactive)
REMARK    1  A    between atoms: _1  and  _2
REMARK    2  A    between atoms: _10  and  _11
REMARK                            x       y       z     vdW  Elec       q    Type
REMARK                         _______ _______ _______ _____ _____    ______ ____
ROOT
ATOM      1  C   LIG     1       0.324  -5.464  -1.465  0.00  0.00    +0.141 C 
ATOM      2  N   LIG     1       0.407  -4.145  -0.870  0.00  0.00    -0.243 N 
ATOM      3  C   LIG     1      -0.710  -3.559  -0.311  0.00  0.00    +0.239 C 
ATOM      4  O   LIG     1      -1.788  -4.192  -0.193  0.00  0.00    -0.273 OA
ATOM      5  C   LIG     1      -0.709  -2.168   0.207  0.00  0.00    +0.204 C 
ATOM      6  N   LIG     1       0.476  -1.396  -0.113  0.00  0.00    -0.284 N 
ATOM      7  C   LIG     1       0.456  -0.002  -0.171  0.00  0.00    +0.213 C 
ATOM      8  O   LIG     1       1.518   0.640  -0.358  0.00  0.00    -0.276 OA
ATOM      9  C   LIG     1      -0.754   0.840  -0.017  0.00  0.00    +0.109 C 
ATOM     10  C   LIG     1       1.732  -2.102  -0.277  0.00  0.00    +0.204 C 
ATOM     11  C   LIG     1       1.613  -3.480  -0.807  0.00  0.00    +0.239 C 
ATOM     12  O   LIG     1       2.683  -4.028  -1.166  0.00  0.00    -0.273 OA
ENDROOT
TORSDOF 0
