REMARK    Small molecule (ligand)
REMARK    Compound: Z2027307024_1_T2
REMARK    SMILES: CN1C(O)=CN(C=C1O)C(C)=O
REMARK    The ligand was originally not a salt, therefore no desalting was carried out.
REMARK    The tautomeric state was generated by cxcalc version 18.20.0 of ChemAxons JChem Suite.
REMARK    Protonation state was generated at pH 7.4 by cxcalc version 18.20.0 of ChemAxons JChem Suite.
REMARK    Generation of the 3D conformation was carried out by molconvert version 18.20.0 of ChemAxons JChem Suite.
REMARK    Generation of the the target format file (pdbqt) was carried out by Open Babel version 2.4.1.
REMARK    Created on Sun Nov  4 17:39:38 EST 2018
REMARK  4 active torsions:
REMARK  status: ('A' for Active; 'I' for Inactive)
REMARK    1  A    between atoms: _1  and  _2
REMARK    2  A    between atoms: _3  and  _4
REMARK    3  A    between atoms: _8  and  _9
REMARK    4  A    between atoms: _10  and  _11
REMARK                            x       y       z     vdW  Elec       q    Type
REMARK                         _______ _______ _______ _____ _____    ______ ____
ROOT
ATOM      1  C   LIG     1       0.391  -5.383  -1.161  0.00  0.00    +0.155 C 
ATOM      2  N   LIG     1       0.411  -3.946  -0.993  0.00  0.00    -0.284 N 
ATOM      3  C   LIG     1      -0.754  -3.308  -0.673  0.00  0.00    +0.212 A 
ATOM      4  C   LIG     1      -0.732  -1.995  -0.370  0.00  0.00    +0.159 A 
ATOM      5  N   LIG     1       0.437  -1.287  -0.375  0.00  0.00    -0.284 N 
ATOM      6  C   LIG     1       0.497   0.032   0.085  0.00  0.00    +0.229 C 
ATOM      7  O   LIG     1       1.580   0.671   0.071  0.00  0.00    -0.273 OA
ATOM      8  C   LIG     1      -0.659   0.780   0.633  0.00  0.00    +0.113 C 
ATOM      9  C   LIG     1       1.566  -1.912  -0.824  0.00  0.00    +0.159 A 
ATOM     10  C   LIG     1       1.566  -3.228  -1.119  0.00  0.00    +0.212 A 
ENDROOT
BRANCH   3  11
ATOM     11  O   LIG     1      -1.918  -3.963  -0.645  0.00  0.00    -0.492 OA
ATOM     12  H   LIG     1      -2.180  -4.110   0.267  0.00  0.00    +0.294 HD
ENDBRANCH   3  11
BRANCH  10  13
ATOM     13  O   LIG     1       2.705  -3.787  -1.524  0.00  0.00    -0.492 OA
ATOM     14  H   LIG     1       3.226  -4.043  -0.760  0.00  0.00    +0.294 HD
ENDBRANCH  10  13
TORSDOF 2
