REMARK    Small molecule (ligand)
REMARK    Compound: Z2499074481_1_T2
REMARK    SMILES: CC#CC(=O)N1C=C(O)N(C)C(O)=C1
REMARK    The ligand was originally not a salt, therefore no desalting was carried out.
REMARK    The tautomeric state was generated by cxcalc version 18.20.0 of ChemAxons JChem Suite.
REMARK    Protonation state was generated at pH 7.4 by cxcalc version 18.20.0 of ChemAxons JChem Suite.
REMARK    Generation of the 3D conformation was carried out by molconvert version 18.20.0 of ChemAxons JChem Suite.
REMARK    Generation of the the target format file (pdbqt) was carried out by Open Babel version 2.4.1.
REMARK    Created on Sun Nov  4 17:39:34 EST 2018
REMARK  5 active torsions:
REMARK  status: ('A' for Active; 'I' for Inactive)
REMARK    1  A    between atoms: _1  and  _2
REMARK    2  A    between atoms: _3  and  _4
REMARK    3  A    between atoms: _8  and  _9
REMARK    4  A    between atoms: _10  and  _11
REMARK    5  A    between atoms: _12  and  _13
REMARK                            x       y       z     vdW  Elec       q    Type
REMARK                         _______ _______ _______ _____ _____    ______ ____
ROOT
ATOM      1  C   LIG     1      -2.169  -0.367   0.138  0.00  0.00    +0.307 C 
ATOM      2  N   LIG     1      -2.829  -0.133   1.348  0.00  0.00    -0.274 N 
ATOM      3  C   LIG     1      -4.159  -0.427   1.467  0.00  0.00    +0.160 A 
ATOM      4  C   LIG     1      -4.806  -0.278   2.640  0.00  0.00    +0.212 A 
ATOM      5  N   LIG     1      -4.125   0.160   3.739  0.00  0.00    -0.284 N 
ATOM      6  C   LIG     1      -4.799   0.177   5.022  0.00  0.00    +0.155 C 
ATOM      7  C   LIG     1      -2.819   0.549   3.614  0.00  0.00    +0.212 A 
ATOM      8  C   LIG     1      -2.186   0.396   2.432  0.00  0.00    +0.160 A 
ATOM      9  O   LIG     1      -2.738  -0.922  -0.831  0.00  0.00    -0.257 OA
ENDROOT
BRANCH   1  12
ATOM     10  C   LIG     1       1.454   0.609  -0.764  0.00  0.00    +0.106 C 
ATOM     11  C   LIG     1       0.188   0.254  -0.410  0.00  0.00    -0.096 C 
ATOM     12  C   LIG     1      -0.933  -0.048  -0.128  0.00  0.00    -0.005 C 
ENDBRANCH   1  12
BRANCH   4  13
ATOM     13  O   LIG     1      -6.108  -0.571   2.702  0.00  0.00    -0.492 OA
ATOM     14  H   LIG     1      -6.379  -0.631   3.621  0.00  0.00    +0.294 HD
ENDBRANCH   4  13
BRANCH   7  15
ATOM     15  O   LIG     1      -2.144   1.080   4.635  0.00  0.00    -0.492 OA
ATOM     16  H   LIG     1      -1.783   0.377   5.181  0.00  0.00    +0.294 HD
ENDBRANCH   7  15
TORSDOF 3
