REMARK    Small molecule (ligand)
REMARK    Compound: Z2499074481_1_T1
REMARK    SMILES: CC#CC(=O)N1CC(=O)N(C)C(O)=C1
REMARK    The ligand was originally not a salt, therefore no desalting was carried out.
REMARK    The tautomeric state was generated by cxcalc version 18.20.0 of ChemAxons JChem Suite.
REMARK    Protonation state was generated at pH 7.4 by cxcalc version 18.20.0 of ChemAxons JChem Suite.
REMARK    Generation of the 3D conformation was carried out by molconvert version 18.20.0 of ChemAxons JChem Suite.
REMARK    Generation of the the target format file (pdbqt) was carried out by Open Babel version 2.4.1.
REMARK    Created on Sun Nov  4 17:39:32 EST 2018
REMARK  4 active torsions:
REMARK  status: ('A' for Active; 'I' for Inactive)
REMARK    1  A    between atoms: _1  and  _2
REMARK    2  A    between atoms: _3  and  _4
REMARK    3  A    between atoms: _10  and  _11
REMARK    4  A    between atoms: _12  and  _13
REMARK                            x       y       z     vdW  Elec       q    Type
REMARK                         _______ _______ _______ _____ _____    ______ ____
ROOT
ATOM      1  C   LIG     1      -2.289  -0.320  -0.193  0.00  0.00    +0.295 C 
ATOM      2  N   LIG     1      -3.098  -0.497   0.928  0.00  0.00    -0.254 N 
ATOM      3  C   LIG     1      -2.644  -0.297   2.194  0.00  0.00    +0.142 C 
ATOM      4  C   LIG     1      -3.358  -0.632   3.284  0.00  0.00    +0.201 C 
ATOM      5  N   LIG     1      -4.580  -1.218   3.195  0.00  0.00    -0.243 N 
ATOM      6  C   LIG     1      -5.268  -1.732   4.361  0.00  0.00    +0.141 C 
ATOM      7  C   LIG     1      -5.188  -1.328   1.958  0.00  0.00    +0.240 C 
ATOM      8  O   LIG     1      -6.347  -1.790   1.821  0.00  0.00    -0.273 OA
ATOM      9  C   LIG     1      -4.481  -0.902   0.726  0.00  0.00    +0.210 C 
ATOM     10  O   LIG     1      -2.754  -0.399  -1.356  0.00  0.00    -0.260 OA
ENDROOT
BRANCH   1  13
ATOM     11  C   LIG     1       1.532   0.220  -0.072  0.00  0.00    +0.106 C 
ATOM     12  C   LIG     1       0.180   0.061  -0.121  0.00  0.00    -0.096 C 
ATOM     13  C   LIG     1      -1.003  -0.103  -0.160  0.00  0.00    -0.008 C 
ENDBRANCH   1  13
BRANCH   4  14
ATOM     14  O   LIG     1      -2.813  -0.342   4.464  0.00  0.00    -0.494 OA
ATOM     15  H   LIG     1      -2.600  -1.156   4.926  0.00  0.00    +0.294 HD
ENDBRANCH   4  14
TORSDOF 2
