REMARK    Small molecule (ligand)
REMARK    Compound: Z2890544298_1_T1
REMARK    SMILES: CN(C)C(=O)[C@@H]1OCCN(C)C1=O
REMARK    The ligand was originally not a salt, therefore no desalting was carried out.
REMARK    The tautomeric state was generated by cxcalc version 18.20.0 of ChemAxons JChem Suite.
REMARK    Protonation state was generated at pH 7.4 by cxcalc version 18.20.0 of ChemAxons JChem Suite.
REMARK    Generation of the 3D conformation was carried out by molconvert version 18.20.0 of ChemAxons JChem Suite.
REMARK    Generation of the the target format file (pdbqt) was carried out by Open Babel version 2.4.1.
REMARK    Created on Sun Nov  4 17:39:30 EST 2018
REMARK  4 active torsions:
REMARK  status: ('A' for Active; 'I' for Inactive)
REMARK    1  A    between atoms: _1  and  _2
REMARK    2  A    between atoms: _2  and  _3
REMARK    3  A    between atoms: _4  and  _6
REMARK    4  A    between atoms: _10  and  _11
REMARK                            x       y       z     vdW  Elec       q    Type
REMARK                         _______ _______ _______ _____ _____    ______ ____
ROOT
ATOM      1  C   LIG     1      -1.924   0.480   0.490  0.00  0.00    +0.289 C 
ATOM      2  C   LIG     1      -0.465   0.688   0.252  0.00  0.00    +0.253 C 
ATOM      3  O   LIG     1      -0.084   1.868   0.054  0.00  0.00    -0.272 OA
ATOM      4  N   LIG     1       0.435  -0.362   0.285  0.00  0.00    -0.300 N 
ATOM      5  C   LIG     1       1.842  -0.142   0.043  0.00  0.00    +0.132 C 
ATOM      6  C   LIG     1       0.010  -1.707   0.609  0.00  0.00    +0.135 C 
ATOM      7  C   LIG     1      -1.471  -1.832   1.047  0.00  0.00    +0.180 C 
ATOM      8  O   LIG     1      -2.289  -0.907   0.312  0.00  0.00    -0.357 OA
ENDROOT
BRANCH   1  11
ATOM      9  C   LIG     1      -4.206   1.589   3.439  0.00  0.00    +0.131 C 
ATOM     10  N   LIG     1      -3.783   1.083   2.147  0.00  0.00    -0.305 N 
ATOM     11  C   LIG     1      -2.434   0.999   1.800  0.00  0.00    +0.253 C 
ATOM     12  O   LIG     1      -1.565   1.361   2.634  0.00  0.00    -0.272 OA
ATOM     13  C   LIG     1      -4.867   0.692   1.269  0.00  0.00    +0.131 C 
ENDBRANCH   1  11
TORSDOF 1
