REMARK    Small molecule (ligand)
REMARK    Compound: Z2977592255_1_T1
REMARK    SMILES: CN1CN(CC1=O)C(=O)C#C
REMARK    The ligand was originally not a salt, therefore no desalting was carried out.
REMARK    The tautomeric state was generated by cxcalc version 18.20.0 of ChemAxons JChem Suite.
REMARK    Protonation state was generated at pH 7.4 by cxcalc version 18.20.0 of ChemAxons JChem Suite.
REMARK    Generation of the 3D conformation was carried out by molconvert version 18.20.0 of ChemAxons JChem Suite.
REMARK    Generation of the the target format file (pdbqt) was carried out by Open Babel version 2.4.1.
REMARK    Created on Sun Nov  4 17:39:18 EST 2018
REMARK  2 active torsions:
REMARK  status: ('A' for Active; 'I' for Inactive)
REMARK    1  A    between atoms: _1  and  _2
REMARK    2  A    between atoms: _8  and  _10
REMARK                            x       y       z     vdW  Elec       q    Type
REMARK                         _______ _______ _______ _____ _____    ______ ____
ROOT
ATOM      1  C   LIG     1       5.887  -3.139  -0.878  0.00  0.00    +0.133 C 
ATOM      2  N   LIG     1       4.613  -2.586  -0.523  0.00  0.00    -0.287 N 
ATOM      3  C   LIG     1       3.495  -3.282  -0.237  0.00  0.00    +0.234 C 
ATOM      4  O   LIG     1       3.389  -4.530  -0.224  0.00  0.00    -0.274 OA
ATOM      5  C   LIG     1       2.383  -2.393   0.070  0.00  0.00    +0.206 C 
ATOM      6  N   LIG     1       2.988  -1.102  -0.039  0.00  0.00    -0.266 N 
ATOM      7  C   LIG     1       2.337   0.093   0.180  0.00  0.00    +0.292 C 
ATOM      8  O   LIG     1       2.952   1.182   0.113  0.00  0.00    -0.260 OA
ATOM      9  C   LIG     1       4.366  -1.189  -0.422  0.00  0.00    +0.220 C 
ENDROOT
BRANCH   7  10
ATOM     10  C   LIG     1       1.065   0.175   0.450  0.00  0.00    -0.011 C 
ATOM     11  C   LIG     1      -0.105   0.251   0.681  0.00  0.00    +0.014 C 
ENDBRANCH   7  10
TORSDOF 1
