REMARK    Small molecule (ligand)
REMARK    Compound: Z2980972959_1_T1
REMARK    SMILES: CS(=O)(=O)C1CN(C1)C(=O)C#C
REMARK    The ligand was originally not a salt, therefore no desalting was carried out.
REMARK    The tautomeric state was generated by cxcalc version 18.20.0 of ChemAxons JChem Suite.
REMARK    Protonation state was generated at pH 7.4 by cxcalc version 18.20.0 of ChemAxons JChem Suite.
REMARK    Generation of the 3D conformation was carried out by molconvert version 18.20.0 of ChemAxons JChem Suite.
REMARK    Generation of the the target format file (pdbqt) was carried out by Open Babel version 2.4.1.
REMARK    Created on Sun Nov  4 17:39:16 EST 2018
REMARK  3 active torsions:
REMARK  status: ('A' for Active; 'I' for Inactive)
REMARK    1  A    between atoms: _1  and  _2
REMARK    2  A    between atoms: _2  and  _5
REMARK    3  A    between atoms: _9  and  _11
REMARK                            x       y       z     vdW  Elec       q    Type
REMARK                         _______ _______ _______ _____ _____    ______ ____
ROOT
ATOM      1  C   LIG     1       4.026   2.727   0.640  0.00  0.00    +0.165 C 
ATOM      2  C   LIG     1       4.403   1.254   0.368  0.00  0.00    +0.136 C 
ATOM      3  N   LIG     1       3.030   1.050   0.081  0.00  0.00    -0.287 N 
ATOM      4  C   LIG     1       2.376  -0.085  -0.296  0.00  0.00    +0.291 C 
ATOM      5  O   LIG     1       3.015  -1.139  -0.511  0.00  0.00    -0.260 OA
ATOM      6  C   LIG     1       2.556   2.368   0.319  0.00  0.00    +0.136 C 
ENDROOT
BRANCH   1   8
ATOM      7  C   LIG     1       6.137   3.361   2.680  0.00  0.00    +0.194 C 
ATOM      8  S   LIG     1       4.338   3.320   2.349  0.00  0.00    -0.028 S 
ATOM      9  O   LIG     1       3.620   2.357   3.411  0.00  0.00    -0.174 OA
ATOM     10  O   LIG     1       3.747   4.802   2.506  0.00  0.00    -0.174 OA
ENDBRANCH   1   8
BRANCH   4  11
ATOM     11  C   LIG     1       1.082  -0.133  -0.413  0.00  0.00    -0.011 C 
ATOM     12  C   LIG     1      -0.108  -0.180  -0.502  0.00  0.00    +0.014 C 
ENDBRANCH   4  11
TORSDOF 2
